Official_rural_test.m
%% MATPOWER Case Format : Version 2
function mpc = matpower_rural
mpc.version = '2';

%%-----  Power Flow Data  -----%%
%% system MVA base
mpc.baseMVA = 1;
%% bus data
%    bus_i    type    Pd    Qd    Gs    Bs    area    Vm    Va    baseKV    zone    Vmax    Vmin
mpc.bus = [
	1	3	0.0	0.0	0.0	0.0	1	1.0	0.0	132.0	1	1.1	0.9				
	6597	1	0.1	0.03	0.0	0.0	1	1.0	0.0	20.0	1	1.1	0.9				
	6598	1	0.1	0.03	0.0	0.0	1	1.0	0.0	20.0	1	1.1	0.9				
	6599	1	0.1	0.03	0.0	0.0	1	1.0	0.0	20.0	1	1.1	0.9				
	6600	1	0.1	0.03	0.0	0.0	1	1.0	0.0	20.0	1	1.1	0.9				
	6601	1	0.1	0.03	0.0	0.0	1	1.0	0.0	20.0	1	1.1	0.9				
	6602	1	0.1	0.03	0.0	0.0	1	1.0	0.0	20.0	1	1.1	0.9				
	6603	1	0.1	0.03	0.0	0.0	1	1.0	0.0	20.0	1	1.1	0.9				
	6604	1	0.1	0.03	0.0	0.0	1	1.0	0.0	20.0	1	1.1	0.9				
	6605	1	0.1	0.03	0.0	0.0	1	1.0	0.0	20.0	1	1.1	0.9				
	6606	1	0.1	0.03	0.0	0.0	1	1.0	0.0	20.0	1	1.1	0.9				
	6607	2	0.2	0.06	0.0	0.0	1	1.0	0.0	20.0	1	1.1	0.9				
	6608	1	0.2	0.06	0.0	0.0	1	1.0	0.0	20.0	1	1.1	0.9				
	6609	1	0.2	0.06	0.0	0.0	1	1.0	0.0	20.0	1	1.1	0.9				
	6610	1	0.2	0.06	0.0	0.0	1	1.0	0.0	20.0	1	1.1	0.9				
	6611	1	0.2	0.06	0.0	0.0	1	1.0	0.0	20.0	1	1.1	0.9				
	6612	1	0.2	0.06	0.0	0.0	1	1.0	0.0	20.0	1	1.1	0.9				
	6613	1	0.2	0.06	0.0	0.0	1	1.0	0.0	20.0	1	1.1	0.9				
	6614	1	0.2	0.06	0.0	0.0	1	1.0	0.0	20.0	1	1.1	0.9				
	6615	1	0.2	0.06	0.0	0.0	1	1.0	0.0	20.0	1	1.1	0.9				
	6616	1	0.2	0.06	0.0	0.0	1	1.0	0.0	20.0	1	1.1	0.9				
	6769	1	0.1164	0.03492	0.0	0.0	1	1.0	0.0	20.0	1	1.1	0.9				
	6770	1	0.046	0.0138	0.0	0.0	1	1.0	0.0	20.0	1	1.1	0.9				
	6771	1	0.1408	0.04224	0.0	0.0	1	1.0	0.0	20.0	1	1.1	0.9				
	6772	1	0.1236	0.03708	0.0	0.0	1	1.0	0.0	20.0	1	1.1	0.9				
	6773	1	0.0728	0.02184	0.0	0.0	1	1.0	0.0	20.0	1	1.1	0.9				
	6774	1	0.0352	0.01056	0.0	0.0	1	1.0	0.0	20.0	1	1.1	0.9				
	6775	1	0.1024	0.03072	0.0	0.0	1	1.0	0.0	20.0	1	1.1	0.9				
	6776	1	0.07	0.021	0.0	0.0	1	1.0	0.0	20.0	1	1.1	0.9				
	6777	1	0.106	0.0318	0.0	0.0	1	1.0	0.0	20.0	1	1.1	0.9				
	6778	1	0.13	0.039	0.0	0.0	1	1.0	0.0	20.0	1	1.1	0.9				
	6779	1	0.0716	0.02148	0.0	0.0	1	1.0	0.0	20.0	1	1.1	0.9				
	6780	1	0.1232	0.03696	0.0	0.0	1	1.0	0.0	20.0	1	1.1	0.9				
	6781	1	0.0548	0.01644	0.0	0.0	1	1.0	0.0	20.0	1	1.1	0.9				
	6782	1	0.1604	0.04812	0.0	0.0	1	1.0	0.0	20.0	1	1.1	0.9				
	6783	1	0.1024	0.03072	0.0	0.0	1	1.0	0.0	20.0	1	1.1	0.9				
	6784	1	0.26	0.078	0.0	0.0	1	1.0	0.0	20.0	1	1.1	0.9				
	6785	1	0.2432	0.07296	0.0	0.0	1	1.0	0.0	20.0	1	1.1	0.9				
	6786	1	0.0508	0.01524	0.0	0.0	1	1.0	0.0	20.0	1	1.1	0.9				
	6787	1	0.0352	0.01056	0.0	0.0	1	1.0	0.0	20.0	1	1.1	0.9				
	6788	1	0.0568	0.01704	0.0	0.0	1	1.0	0.0	20.0	1	1.1	0.9				
	6789	1	0.1564	0.04692	0.0	0.0	1	1.0	0.0	20.0	1	1.1	0.9				
	6790	1	0.1148	0.03444	0.0	0.0	1	1.0	0.0	20.0	1	1.1	0.9				
	6791	1	0.3312	0.09936	0.0	0.0	1	1.0	0.0	20.0	1	1.1	0.9				
	6792	1	0.1412	0.04236	0.0	0.0	1	1.0	0.0	20.0	1	1.1	0.9				
	6793	1	0.0	0.0	0.0	0.0	1	1.0	0.0	20.0	1	1.1	0.9				
	6794	1	0.3264	0.09792	0.0	0.0	1	1.0	0.0	20.0	1	1.1	0.9				
	6795	1	0.2072	0.06216	0.0	0.0	1	1.0	0.0	20.0	1	1.1	0.9				
	6796	1	0.0996	0.02988	0.0	0.0	1	1.0	0.0	20.0	1	1.1	0.9				
	6797	1	0.0792	0.02376	0.0	0.0	1	1.0	0.0	20.0	1	1.1	0.9				
	6798	1	0.176	0.0528	0.0	0.0	1	1.0	0.0	20.0	1	1.1	0.9				
	6799	1	0.2028	0.06084	0.0	0.0	1	1.0	0.0	20.0	1	1.1	0.9				
	6800	1	0.222	0.0666	0.0	0.0	1	1.0	0.0	20.0	1	1.1	0.9				
	6801	1	0.2784	0.08352	0.0	0.0	1	1.0	0.0	20.0	1	1.1	0.9				
	6802	1	0.2448	0.07344	0.0	0.0	1	1.0	0.0	20.0	1	1.1	0.9				
	6803	1	0.1412	0.04236	0.0	0.0	1	1.0	0.0	20.0	1	1.1	0.9				
	6804	1	0.1344	0.04032	0.0	0.0	1	1.0	0.0	20.0	1	1.1	0.9				
	6805	1	0.062	0.0186	0.0	0.0	1	1.0	0.0	20.0	1	1.1	0.9				
	6806	1	0.1104	0.03312	0.0	0.0	1	1.0	0.0	20.0	1	1.1	0.9				
	6807	2	0.2988	0.08964	0.0	0.0	1	1.0	0.0	20.0	1	1.1	0.9				
	6808	1	0.21	0.063	0.0	0.0	1	1.0	0.0	20.0	1	1.1	0.9				
	6809	1	0.1704	0.05112	0.0	0.0	1	1.0	0.0	20.0	1	1.1	0.9				
	6810	1	0.0424	0.01272	0.0	0.0	1	1.0	0.0	20.0	1	1.1	0.9				
	6811	1	0.248	0.0744	0.0	0.0	1	1.0	0.0	20.0	1	1.1	0.9				
	6812	1	0.122	0.0366	0.0	0.0	1	1.0	0.0	20.0	1	1.1	0.9				
	6813	1	0.162	0.0486	0.0	0.0	1	1.0	0.0	20.0	1	1.1	0.9				
	6814	1	0.2896	0.08688	0.0	0.0	1	1.0	0.0	20.0	1	1.1	0.9				
	6815	1	0.3212	0.09636	0.0	0.0	1	1.0	0.0	20.0	1	1.1	0.9				
	6816	1	0.3072	0.09216	0.0	0.0	1	1.0	0.0	20.0	1	1.1	0.9				
	6817	1	0.206	0.0618	0.0	0.0	1	1.0	0.0	20.0	1	1.1	0.9				
	6818	1	0.3352	0.10056	0.0	0.0	1	1.0	0.0	20.0	1	1.1	0.9				
	6819	1	0.2432	0.07296	0.0	0.0	1	1.0	0.0	20.0	1	1.1	0.9				
	6820	1	0.0732	0.02196	0.0	0.0	1	1.0	0.0	20.0	1	1.1	0.9				
	6821	1	0.3284	0.09852	0.0	0.0	1	1.0	0.0	20.0	1	1.1	0.9				
	6822	1	0.276	0.0828	0.0	0.0	1	1.0	0.0	20.0	1	1.1	0.9				
	6823	1	0.088	0.0264	0.0	0.0	1	1.0	0.0	20.0	1	1.1	0.9				
	6824	1	0.1496	0.04488	0.0	0.0	1	1.0	0.0	20.0	1	1.1	0.9				
	6825	1	0.2312	0.06936	0.0	0.0	1	1.0	0.0	20.0	1	1.1	0.9				
	6826	1	0.1356	0.04068	0.0	0.0	1	1.0	0.0	20.0	1	1.1	0.9				
	6827	1	0.1604	0.04812	0.0	0.0	1	1.0	0.0	20.0	1	1.1	0.9				
	6828	1	0.014	0.0042	0.0	0.0	1	1.0	0.0	20.0	1	1.1	0.9				
	6829	1	0.2816	0.08448	0.0	0.0	1	1.0	0.0	20.0	1	1.1	0.9				
	6830	1	0.3092	0.09276	0.0	0.0	1	1.0	0.0	20.0	1	1.1	0.9				
	6831	2	0.106	0.0318	0.0	0.0	1	1.0	0.0	20.0	1	1.1	0.9				
	6832	1	0.3128	0.09384	0.0	0.0	1	1.0	0.0	20.0	1	1.1	0.9				
	6833	1	0.1772	0.05316	0.0	0.0	1	1.0	0.0	20.0	1	1.1	0.9				
	6834	1	0.108	0.0324	0.0	0.0	1	1.0	0.0	20.0	1	1.1	0.9				
	6835	1	0.2932	0.08796	0.0	0.0	1	1.0	0.0	20.0	1	1.1	0.9				
	6836	1	0.1732	0.05196	0.0	0.0	1	1.0	0.0	20.0	1	1.1	0.9				
	6837	1	0.2804	0.08412	0.0	0.0	1	1.0	0.0	20.0	1	1.1	0.9				
	6838	1	0.3012	0.09036	0.0	0.0	1	1.0	0.0	20.0	1	1.1	0.9				
	6839	1	0.1928	0.05784	0.0	0.0	1	1.0	0.0	20.0	1	1.1	0.9				
	6840	1	0.2148	0.06444	0.0	0.0	1	1.0	0.0	20.0	1	1.1	0.9				
	6841	1	0.1188	0.03564	0.0	0.0	1	1.0	0.0	20.0	1	1.1	0.9				
	6842	1	0.1768	0.05304	0.0	0.0	1	1.0	0.0	20.0	1	1.1	0.9				
	6843	1	0.2036	0.06108	0.0	0.0	1	1.0	0.0	20.0	1	1.1	0.9				
	6844	1	0.1264	0.03792	0.0	0.0	1	1.0	0.0	20.0	1	1.1	0.9				
	6845	1	0.1332	0.03996	0.0	0.0	1	1.0	0.0	20.0	1	1.1	0.9				
	6846	1	0.0716	0.02148	0.0	0.0	1	1.0	0.0	20.0	1	1.1	0.9				
	6847	1	0.1676	0.05028	0.0	0.0	1	1.0	0.0	20.0	1	1.1	0.9				
	6848	1	0.0424	0.01272	0.0	0.0	1	1.0	0.0	20.0	1	1.1	0.9				
	6849	1	0.0496	0.01488	0.0	0.0	1	1.0	0.0	20.0	1	1.1	0.9				
	6850	1	0.0212	0.00636	0.0	0.0	1	1.0	0.0	20.0	1	1.1	0.9				
	6851	1	0.0268	0.00804	0.0	0.0	1	1.0	0.0	20.0	1	1.1	0.9				
	6852	1	0.0872	0.02616	0.0	0.0	1	1.0	0.0	20.0	1	1.1	0.9				
	6853	1	0.112	0.0336	0.0	0.0	1	1.0	0.0	20.0	1	1.1	0.9				
	6854	1	0.0996	0.02988	0.0	0.0	1	1.0	0.0	20.0	1	1.1	0.9				
	6855	1	0.0544	0.01632	0.0	0.0	1	1.0	0.0	20.0	1	1.1	0.9				
	6856	1	0.0664	0.01992	0.0	0.0	1	1.0	0.0	20.0	1	1.1	0.9				
	6857	1	0.0816	0.02448	0.0	0.0	1	1.0	0.0	20.0	1	1.1	0.9				
	6858	1	0.034	0.0102	0.0	0.0	1	1.0	0.0	20.0	1	1.1	0.9				
	6859	1	0.0804	0.02412	0.0	0.0	1	1.0	0.0	20.0	1	1.1	0.9				
	6860	1	0.0928	0.02784	0.0	0.0	1	1.0	0.0	20.0	1	1.1	0.9				
	6861	1	0.1332	0.03996	0.0	0.0	1	1.0	0.0	20.0	1	1.1	0.9				
	6862	1	0.2004	0.06012	0.0	0.0	1	1.0	0.0	20.0	1	1.1	0.9				
	6863	1	0.0908	0.02724	0.0	0.0	1	1.0	0.0	20.0	1	1.1	0.9				
	6864	1	0.138	0.0414	0.0	0.0	1	1.0	0.0	20.0	1	1.1	0.9				
	6865	1	0.2512	0.07536	0.0	0.0	1	1.0	0.0	20.0	1	1.1	0.9				
	6866	1	0.1216	0.03648	0.0	0.0	1	1.0	0.0	20.0	1	1.1	0.9				
	6867	2	0.1668	0.05004	0.0	0.0	1	1.0	0.0	20.0	1	1.1	0.9				
	6868	1	0.2336	0.07008	0.0	0.0	1	1.0	0.0	20.0	1	1.1	0.9				
	6869	1	0.1048	0.03144	0.0	0.0	1	1.0	0.0	20.0	1	1.1	0.9				
	6870	1	0.1528	0.04584	0.0	0.0	1	1.0	0.0	20.0	1	1.1	0.9				
	6871	1	0.3008	0.09024	0.0	0.0	1	1.0	0.0	20.0	1	1.1	0.9				
	6872	1	0.1492	0.04476	0.0	0.0	1	1.0	0.0	20.0	1	1.1	0.9				
	6873	1	0.1992	0.05976	0.0	0.0	1	1.0	0.0	20.0	1	1.1	0.9				
	6874	1	0.326	0.0978	0.0	0.0	1	1.0	0.0	20.0	1	1.1	0.9				
	6875	1	0.3028	0.09084	0.0	0.0	1	1.0	0.0	20.0	1	1.1	0.9				
	6876	1	0.1052	0.03156	0.0	0.0	1	1.0	0.0	20.0	1	1.1	0.9				
	6877	1	0.3336	0.10008	0.0	0.0	1	1.0	0.0	20.0	1	1.1	0.9				
	6878	1	0.2396	0.07188	0.0	0.0	1	1.0	0.0	20.0	1	1.1	0.9				
	6879	1	0.1752	0.05256	0.0	0.0	1	1.0	0.0	20.0	1	1.1	0.9				
	6880	1	0.1912	0.05736	0.0	0.0	1	1.0	0.0	20.0	1	1.1	0.9				
	6881	1	0.2608	0.07824	0.0	0.0	1	1.0	0.0	20.0	1	1.1	0.9				
	6882	1	0.1712	0.05136	0.0	0.0	1	1.0	0.0	20.0	1	1.1	0.9				
	6883	1	0.1804	0.05412	0.0	0.0	1	1.0	0.0	20.0	1	1.1	0.9				
	6884	1	0.246	0.0738	0.0	0.0	1	1.0	0.0	20.0	1	1.1	0.9				
	6885	1	0.102	0.0306	0.0	0.0	1	1.0	0.0	20.0	1	1.1	0.9				
	6886	1	0.112	0.0336	0.0	0.0	1	1.0	0.0	20.0	1	1.1	0.9				
	6887	1	0.1628	0.04884	0.0	0.0	1	1.0	0.0	20.0	1	1.1	0.9				
	6888	1	0.27	0.081	0.0	0.0	1	1.0	0.0	20.0	1	1.1	0.9				
	6889	1	0.2964	0.08892	0.0	0.0	1	1.0	0.0	20.0	1	1.1	0.9				
	6890	1	0.1552	0.04656	0.0	0.0	1	1.0	0.0	20.0	1	1.1	0.9				
	6891	1	0.2268	0.06804	0.0	0.0	1	1.0	0.0	20.0	1	1.1	0.9				
	6892	1	0.2096	0.06288	0.0	0.0	1	1.0	0.0	20.0	1	1.1	0.9				
	6893	1	0.2004	0.06012	0.0	0.0	1	1.0	0.0	20.0	1	1.1	0.9				
	6894	1	0.1096	0.03288	0.0	0.0	1	1.0	0.0	20.0	1	1.1	0.9				
	6895	1	0.1972	0.05916	0.0	0.0	1	1.0	0.0	20.0	1	1.1	0.9				
	6896	1	0.2812	0.08436	0.0	0.0	1	1.0	0.0	20.0	1	1.1	0.9				
	6897	1	0.1936	0.05808	0.0	0.0	1	1.0	0.0	20.0	1	1.1	0.9				
	6898	1	0.1608	0.04824	0.0	0.0	1	1.0	0.0	20.0	1	1.1	0.9				
	6899	1	0.2504	0.07512	0.0	0.0	1	1.0	0.0	20.0	1	1.1	0.9				
	6900	1	0.2016	0.06048	0.0	0.0	1	1.0	0.0	20.0	1	1.1	0.9				
	6901	1	0.2708	0.08124	0.0	0.0	1	1.0	0.0	20.0	1	1.1	0.9				
	6902	1	0.1672	0.05016	0.0	0.0	1	1.0	0.0	20.0	1	1.1	0.9				
	6903	1	0.1168	0.03504	0.0	0.0	1	1.0	0.0	20.0	1	1.1	0.9				
	6904	1	0.1836	0.05508	0.0	0.0	1	1.0	0.0	20.0	1	1.1	0.9				
	6905	1	0.1256	0.03768	0.0	0.0	1	1.0	0.0	20.0	1	1.1	0.9				
	6906	1	0.0512	0.01536	0.0	0.0	1	1.0	0.0	20.0	1	1.1	0.9				
	6907	1	0.2704	0.08112	0.0	0.0	1	1.0	0.0	20.0	1	1.1	0.9				
	6908	1	0.022	0.0066	0.0	0.0	1	1.0	0.0	20.0	1	1.1	0.9				
	6909	1	0.0668	0.02004	0.0	0.0	1	1.0	0.0	20.0	1	1.1	0.9				
	6910	1	0.1492	0.04476	0.0	0.0	1	1.0	0.0	20.0	1	1.1	0.9				
	6911	1	0.3296	0.09888	0.0	0.0	1	1.0	0.0	20.0	1	1.1	0.9				
	6912	1	0.094	0.0282	0.0	0.0	1	1.0	0.0	20.0	1	1.1	0.9				
	6913	1	0.0112	0.00336	0.0	0.0	1	1.0	0.0	20.0	1	1.1	0.9				
	6914	1	0.1288	0.03864	0.0	0.0	1	1.0	0.0	20.0	1	1.1	0.9				
	6915	1	0.2296	0.06888	0.0	0.0	1	1.0	0.0	20.0	1	1.1	0.9				
	6916	1	0.1812	0.05436	0.0	0.0	1	1.0	0.0	20.0	1	1.1	0.9				
	6917	1	0.2516	0.07548	0.0	0.0	1	1.0	0.0	20.0	1	1.1	0.9				
	6918	1	0.1956	0.05868	0.0	0.0	1	1.0	0.0	20.0	1	1.1	0.9				
	6919	1	0.0536	0.01608	0.0	0.0	1	1.0	0.0	20.0	1	1.1	0.9				
	6920	1	0.0948	0.02844	0.0	0.0	1	1.0	0.0	20.0	1	1.1	0.9				
	6921	1	0.2472	0.07416	0.0	0.0	1	1.0	0.0	20.0	1	1.1	0.9				
];

%% generator data
%    bus    Pg    Qg    Qmax    Qmin    Vg    mBase    status    Pmax    Pmin    Pc1    Pc2    Qc1min    Qc1max    Qc2min    Qc2max    ramp_agc    ramp_10    ramp_30    ramp_q    apf
mpc.gen = [
	1	0.0	0.0	1000.0	-1000.0	1.0	1.0	1	1000.0	0.0	0.0	0.0	0.0	0.0	0.0	0.0	0.0	0.0	0.0	0.0	0.0			
	6831 16 0.0 0.0 0.0 1.0 1.0 1 16.0 0.0 0.0	0.0	0.0	0.0	0.0	0.0	0.0	0.0	0.0	0.0	0.0	
	6920 2 0.0 0.0 0.0 1.0 1.0 1 2.0 0.0 0.0	0.0	0.0	0.0	0.0	0.0	0.0	0.0	0.0	0.0	0.0
];

%% branch data
%    f_bus    t_bus    r    x    b    rateA    rateB    rateC    ratio    angle    status    angmin    angmax
mpc.branch = [
	6769	6770	0.0013131	0.00121933	0.0	8.66025	8.66025	8.66025	0	0	1	-60.0001403060998	60.0001403060998								
	6771	6772	0.00114565	0.0010638	0.0	8.66025	8.66025	8.66025	0	0	1	-60.0001403060998	60.0001403060998								
	6773	6774	0.00145405	0.0013502	0.0	8.66025	8.66025	8.66025	0	0	1	-60.0001403060998	60.0001403060998								
	6775	6776	0.00149257	0.00138598	0.0	8.66025	8.66025	8.66025	0	0	1	-60.0001403060998	60.0001403060998								
	6777	6774	0.00111195	0.00103253	0.0	8.66025	8.66025	8.66025	0	0	1	-60.0001403060998	60.0001403060998								
	6778	6779	0.0016654	0.00154645	0.0	8.66025	8.66025	8.66025	0	0	1	-60.0001403060998	60.0001403060998								
	6780	6781	0.00109973	0.00102118	0.0	8.66025	8.66025	8.66025	0	0	1	-60.0001403060998	60.0001403060998								
	6782	6783	0.00168022	0.00156023	0.0	8.66025	8.66025	8.66025	0	0	1	-60.0001403060998	60.0001403060998								
	6784	6615	0.000420075	0.000390075	0.0	8.66025	8.66025	8.66025	0	0	1	-60.0001403060998	60.0001403060998								
	6772	6785	0.00107195	0.000995375	0.0	8.66025	8.66025	8.66025	0	0	1	-60.0001403060998	60.0001403060998								
	6774	6786	0.00160563	0.00149095	0.0	8.66025	8.66025	8.66025	0	0	1	-60.0001403060998	60.0001403060998								
	6787	6788	0.0017998	0.00167125	0.0	8.66025	8.66025	8.66025	0	0	1	-60.0001403060998	60.0001403060998								
	6770	6789	0.00152633	0.0014173	0.0	8.66025	8.66025	8.66025	0	0	1	-60.0001403060998	60.0001403060998								
	6789	6780	0.00152215	0.00141343	0.0	8.66025	8.66025	8.66025	0	0	1	-60.0001403060998	60.0001403060998								
	6779	6790	0.0013611	0.00126388	0.0	8.66025	8.66025	8.66025	0	0	1	-60.0001403060998	60.0001403060998								
	6791	6776	0.0009297	0.0008633	0.0	8.66025	8.66025	8.66025	0	0	1	-60.0001403060998	60.0001403060998								
	6783	6773	0.00177347	0.0016468	0.0	8.66025	8.66025	8.66025	0	0	1	-60.0001403060998	60.0001403060998								
	6785	6792	0.000502	0.00046615	0.0	8.66025	8.66025	8.66025	0	0	1	-60.0001403060998	60.0001403060998								
	6776	6781	0.00096095	0.000892325	0.0	8.66025	8.66025	8.66025	0	0	1	-60.0001403060998	60.0001403060998								
	6786	6793	0.002817	0.00261575	0.0	8.66025	8.66025	8.66025	0	0	1	-60.0001403060998	60.0001403060998								
	6794	6795	0.00014676	7.69e-5	0.0	10.3923	10.3923	10.3923	0	0	1	-60.0001403060998	60.0001403060998								
	6796	6797	0.000801275	0.00074405	0.0	8.66025	8.66025	8.66025	0	0	1	-60.0001403060998	60.0001403060998								
	6797	6798	0.0007568	0.00070275	0.0	8.66025	8.66025	8.66025	0	0	1	-60.0001403060998	60.0001403060998								
	6799	6785	0.0003098	0.000287675	0.0	8.66025	8.66025	8.66025	0	0	1	-60.0001403060998	60.0001403060998								
	6800	6600	3.48e-5	1.82e-5	0.0	10.3923	10.3923	10.3923	0	0	1	-60.0001403060998	60.0001403060998								
	6801	6802	0.00026945	0.000141143	0.0	10.3923	10.3923	10.3923	0	0	1	-60.0001403060998	60.0001403060998								
	6792	6794	0.000165095	8.65e-5	0.0	10.3923	10.3923	10.3923	0	0	1	-60.0001403060998	60.0001403060998								
	6803	6795	0.000100833	5.28e-5	0.0	10.3923	10.3923	10.3923	0	0	1	-60.0001403060998	60.0001403060998								
	6802	6804	0.000160705	8.42e-5	0.0	10.3923	10.3923	10.3923	0	0	1	-60.0001403060998	60.0001403060998								
	6805	6802	0.000121272	6.35e-5	0.0	10.3923	10.3923	10.3923	0	0	1	-60.0001403060998	60.0001403060998								
	6795	6804	0.000139743	7.32e-5	0.0	10.3923	10.3923	10.3923	0	0	1	-60.0001403060998	60.0001403060998								
	6788	6601	0.000394975	0.00036675	0.0	8.66025	8.66025	8.66025	0	0	1	-60.0001403060998	60.0001403060998								
	6806	6604	0.000144818	7.59e-5	0.0	10.3923	10.3923	10.3923	0	0	1	-60.0001403060998	60.0001403060998								
	6804	6807	0.000114988	6.02e-5	0.0	10.3923	10.3923	10.3923	0	0	1	-60.0001403060998	60.0001403060998								
	6781	6793	0.004347	0.0040365	0.0	8.66025	8.66025	8.66025	0	0	1	-60.0001403060998	60.0001403060998								
	6808	6807	0.00012887	6.75e-5	0.0	10.3923	10.3923	10.3923	0	0	1	-60.0001403060998	60.0001403060998								
	6790	6809	0.0008655	0.000803675	0.0	8.66025	8.66025	8.66025	0	0	1	-60.0001403060998	60.0001403060998								
	6807	6793	0.00864125	0.008024	0.0	8.66025	8.66025	8.66025	0	0	1	-60.0001403060998	60.0001403060998								
	6810	6807	0.000773825	0.00071855	0.0	8.66025	8.66025	8.66025	0	0	1	-60.0001403060998	60.0001403060998								
	6811	6812	0.000148988	7.8e-5	0.0	10.3923	10.3923	10.3923	0	0	1	-60.0001403060998	60.0001403060998								
	6813	6807	0.000122487	6.42e-5	0.0	10.3923	10.3923	10.3923	0	0	1	-60.0001403060998	60.0001403060998								
	6814	6811	0.000117453	6.15e-5	0.0	10.3923	10.3923	10.3923	0	0	1	-60.0001403060998	60.0001403060998								
	6815	6604	8.24e-6	4.31e-6	0.0	10.3923	10.3923	10.3923	0	0	1	-60.0001403060998	60.0001403060998								
	6812	6614	0.000122557	6.42e-5	0.0	10.3923	10.3923	10.3923	0	0	1	-60.0001403060998	60.0001403060998								
	6816	6817	0.000125383	6.57e-5	0.0	10.3923	10.3923	10.3923	0	0	1	-60.0001403060998	60.0001403060998								
	6818	6807	0.000136617	7.16e-5	0.0	10.3923	10.3923	10.3923	0	0	1	-60.0001403060998	60.0001403060998								
	6819	6614	4.48e-5	2.35e-5	0.0	10.3923	10.3923	10.3923	0	0	1	-60.0001403060998	60.0001403060998								
	6820	6821	0.0007083	0.0006577	0.0	8.66025	8.66025	8.66025	0	0	1	-60.0001403060998	60.0001403060998								
	6822	6823	0.000136782	7.16e-5	0.0	10.3923	10.3923	10.3923	0	0	1	-60.0001403060998	60.0001403060998								
	6798	6597	0.000102263	5.36e-5	0.0	10.3923	10.3923	10.3923	0	0	1	-60.0001403060998	60.0001403060998								
	6824	6818	0.000126175	6.61e-5	0.0	10.3923	10.3923	10.3923	0	0	1	-60.0001403060998	60.0001403060998								
	6823	6813	0.000108945	5.71e-5	0.0	10.3923	10.3923	10.3923	0	0	1	-60.0001403060998	60.0001403060998								
	6825	6824	0.00012574	6.59e-5	0.0	10.3923	10.3923	10.3923	0	0	1	-60.0001403060998	60.0001403060998								
	6826	6817	0.00010341	5.42e-5	0.0	10.3923	10.3923	10.3923	0	0	1	-60.0001403060998	60.0001403060998								
	6817	6827	0.00011289	5.91e-5	0.0	10.3923	10.3923	10.3923	0	0	1	-60.0001403060998	60.0001403060998								
	6828	6809	0.000814575	0.000756375	0.0	8.66025	8.66025	8.66025	0	0	1	-60.0001403060998	60.0001403060998								
	6829	6816	0.000100213	5.25e-5	0.0	10.3923	10.3923	10.3923	0	0	1	-60.0001403060998	60.0001403060998								
	6830	6831	0.000108977	5.71e-5	0.0	10.3923	10.3923	10.3923	0	0	1	-60.0001403060998	60.0001403060998								
	6827	6832	0.00011423	5.98e-5	0.0	10.3923	10.3923	10.3923	0	0	1	-60.0001403060998	60.0001403060998								
	6821	6599	2.74e-5	1.44e-5	0.0	10.3923	10.3923	10.3923	0	0	1	-60.0001403060998	60.0001403060998								
	6833	6823	0.000101523	5.32e-5	0.0	10.3923	10.3923	10.3923	0	0	1	-60.0001403060998	60.0001403060998								
	6834	6830	9.46e-5	4.95e-5	0.0	10.3923	10.3923	10.3923	0	0	1	-60.0001403060998	60.0001403060998								
	6831	6835	0.00014684	7.69e-5	0.0	10.3923	10.3923	10.3923	0	0	1	-60.0001403060998	60.0001403060998								
	6832	6831	0.000118408	6.2e-5	0.0	10.3923	10.3923	10.3923	0	0	1	-60.0001403060998	60.0001403060998								
	6836	6833	0.000152598	7.99e-5	0.0	10.3923	10.3923	10.3923	0	0	1	-60.0001403060998	60.0001403060998								
	6837	6836	0.00011297	5.92e-5	0.0	10.3923	10.3923	10.3923	0	0	1	-60.0001403060998	60.0001403060998								
	6838	6837	0.000134853	7.06e-5	0.0	10.3923	10.3923	10.3923	0	0	1	-60.0001403060998	60.0001403060998								
	6839	6830	9.91e-5	5.19e-5	0.0	10.3923	10.3923	10.3923	0	0	1	-60.0001403060998	60.0001403060998								
	6840	6839	0.000106407	5.57e-5	0.0	10.3923	10.3923	10.3923	0	0	1	-60.0001403060998	60.0001403060998								
	6835	6841	7.43e-5	3.89e-5	0.0	10.3923	10.3923	10.3923	0	0	1	-60.0001403060998	60.0001403060998								
	6809	6842	0.000753125	0.00069935	0.0	8.66025	8.66025	8.66025	0	0	1	-60.0001403060998	60.0001403060998								
	6841	6843	0.00018188	9.53e-5	0.0	10.3923	10.3923	10.3923	0	0	1	-60.0001403060998	60.0001403060998								
	6844	6837	0.000156743	8.21e-5	0.0	10.3923	10.3923	10.3923	0	0	1	-60.0001403060998	60.0001403060998								
	6845	6838	0.00013564	7.11e-5	0.0	10.3923	10.3923	10.3923	0	0	1	-60.0001403060998	60.0001403060998								
	6846	6807	0.0021371	0.00198445	0.0	8.66025	8.66025	8.66025	0	0	1	-60.0001403060998	60.0001403060998								
	6847	6840	0.000119358	6.25e-5	0.0	10.3923	10.3923	10.3923	0	0	1	-60.0001403060998	60.0001403060998								
	6843	6848	0.00118295	0.00109845	0.0	8.66025	8.66025	8.66025	0	0	1	-60.0001403060998	60.0001403060998								
	6848	6793	0.0019525	0.00181305	0.0	8.66025	8.66025	8.66025	0	0	1	-60.0001403060998	60.0001403060998								
	6849	6807	0.00195955	0.00181957	0.0	8.66025	8.66025	8.66025	0	0	1	-60.0001403060998	60.0001403060998								
	6850	6789	0.00208582	0.00193683	0.0	8.66025	8.66025	8.66025	0	0	1	-60.0001403060998	60.0001403060998								
	6851	6793	0.00110505	0.0010261	0.0	8.66025	8.66025	8.66025	0	0	1	-60.0001403060998	60.0001403060998								
	6852	6851	0.00171083	0.00158863	0.0	8.66025	8.66025	8.66025	0	0	1	-60.0001403060998	60.0001403060998								
	6842	6603	0.00232598	0.00215985	0.0	8.66025	8.66025	8.66025	0	0	1	-60.0001403060998	60.0001403060998								
	6853	6854	0.0009136	0.00084835	0.0	8.66025	8.66025	8.66025	0	0	1	-60.0001403060998	60.0001403060998								
	6855	6852	0.00197903	0.00183768	0.0	8.66025	8.66025	8.66025	0	0	1	-60.0001403060998	60.0001403060998								
	6854	6856	0.00101143	0.000939175	0.0	8.66025	8.66025	8.66025	0	0	1	-60.0001403060998	60.0001403060998								
	6856	6842	0.00148973	0.00138332	0.0	8.66025	8.66025	8.66025	0	0	1	-60.0001403060998	60.0001403060998								
	6857	6846	0.0028975	0.0026905	0.0	8.66025	8.66025	8.66025	0	0	1	-60.0001403060998	60.0001403060998								
	6858	6856	0.00116195	0.00107895	0.0	8.66025	8.66025	8.66025	0	0	1	-60.0001403060998	60.0001403060998								
	6859	6603	0.0019921	0.0018498	0.0	8.66025	8.66025	8.66025	0	0	1	-60.0001403060998	60.0001403060998								
	6860	6854	0.00116443	0.00108125	0.0	8.66025	8.66025	8.66025	0	0	1	-60.0001403060998	60.0001403060998								
	6861	6851	0.00159063	0.001477	0.0	8.66025	8.66025	8.66025	0	0	1	-60.0001403060998	60.0001403060998								
	6862	6863	0.00075725	0.00070315	0.0	8.66025	8.66025	8.66025	0	0	1	-60.0001403060998	60.0001403060998								
	6864	6860	0.000136453	7.15e-5	0.0	10.3923	10.3923	10.3923	0	0	1	-60.0001403060998	60.0001403060998								
	6865	6866	0.000126538	6.63e-5	0.0	10.3923	10.3923	10.3923	0	0	1	-60.0001403060998	60.0001403060998								
	6866	6867	0.000135498	7.1e-5	0.0	10.3923	10.3923	10.3923	0	0	1	-60.0001403060998	60.0001403060998								
	6868	6864	9.16e-5	4.8e-5	0.0	10.3923	10.3923	10.3923	0	0	1	-60.0001403060998	60.0001403060998								
	6869	6868	0.000100257	5.25e-5	0.0	10.3923	10.3923	10.3923	0	0	1	-60.0001403060998	60.0001403060998								
	6870	6871	0.00052195	0.000484675	0.0	8.66025	8.66025	8.66025	0	0	1	-60.0001403060998	60.0001403060998								
	6871	6865	0.000118637	6.21e-5	0.0	10.3923	10.3923	10.3923	0	0	1	-60.0001403060998	60.0001403060998								
	6872	6863	0.0003976	0.0003692	0.0	8.66025	8.66025	8.66025	0	0	1	-60.0001403060998	60.0001403060998								
	6873	6609	4.91e-5	2.57e-5	0.0	10.3923	10.3923	10.3923	0	0	1	-60.0001403060998	60.0001403060998								
	6874	6875	0.0001384	7.25e-5	0.0	10.3923	10.3923	10.3923	0	0	1	-60.0001403060998	60.0001403060998								
	6863	6874	0.000559125	0.000519175	0.0	8.66025	8.66025	8.66025	0	0	1	-60.0001403060998	60.0001403060998								
	6876	6877	0.000147297	7.72e-5	0.0	10.3923	10.3923	10.3923	0	0	1	-60.0001403060998	60.0001403060998								
	6878	6879	7.72e-5	4.05e-5	0.0	10.3923	10.3923	10.3923	0	0	1	-60.0001403060998	60.0001403060998								
	6880	6881	9.61e-5	5.03e-5	0.0	10.3923	10.3923	10.3923	0	0	1	-60.0001403060998	60.0001403060998								
	6867	6611	1.05e-5	5.5e-6	0.0	10.3923	10.3923	10.3923	0	0	1	-60.0001403060998	60.0001403060998								
	6875	6793	0.00554125	0.0051455	0.0	8.66025	8.66025	8.66025	0	0	1	-60.0001403060998	60.0001403060998								
	6882	6881	0.000114543	6.0e-5	0.0	10.3923	10.3923	10.3923	0	0	1	-60.0001403060998	60.0001403060998								
	6877	6867	0.000106412	5.57e-5	0.0	10.3923	10.3923	10.3923	0	0	1	-60.0001403060998	60.0001403060998								
	6883	6608	0.00036995	0.000343525	0.0	8.66025	8.66025	8.66025	0	0	1	-60.0001403060998	60.0001403060998								
	6879	6884	0.00011184	5.86e-5	0.0	10.3923	10.3923	10.3923	0	0	1	-60.0001403060998	60.0001403060998								
	6881	6869	0.000130072	6.81e-5	0.0	10.3923	10.3923	10.3923	0	0	1	-60.0001403060998	60.0001403060998								
	6885	6861	0.0013378	0.00124223	0.0	8.66025	8.66025	8.66025	0	0	1	-60.0001403060998	60.0001403060998								
	6886	6861	0.00122535	0.00113782	0.0	8.66025	8.66025	8.66025	0	0	1	-60.0001403060998	60.0001403060998								
	6887	6606	8.0e-5	4.19e-5	0.0	10.3923	10.3923	10.3923	0	0	1	-60.0001403060998	60.0001403060998								
	6888	6610	0.00012089	6.33e-5	0.0	10.3923	10.3923	10.3923	0	0	1	-60.0001403060998	60.0001403060998								
	6884	6889	0.000140182	7.34e-5	0.0	10.3923	10.3923	10.3923	0	0	1	-60.0001403060998	60.0001403060998								
	6890	6883	0.000411625	0.000382225	0.0	8.66025	8.66025	8.66025	0	0	1	-60.0001403060998	60.0001403060998								
	6891	6892	7.97e-5	4.18e-5	0.0	10.3923	10.3923	10.3923	0	0	1	-60.0001403060998	60.0001403060998								
	6893	6882	0.00010766	5.64e-5	0.0	10.3923	10.3923	10.3923	0	0	1	-60.0001403060998	60.0001403060998								
	6894	6895	0.000132272	6.93e-5	0.0	10.3923	10.3923	10.3923	0	0	1	-60.0001403060998	60.0001403060998								
	6896	6890	6.8e-5	3.56e-5	0.0	10.3923	10.3923	10.3923	0	0	1	-60.0001403060998	60.0001403060998								
	6895	6876	0.000146433	7.67e-5	0.0	10.3923	10.3923	10.3923	0	0	1	-60.0001403060998	60.0001403060998								
	6897	6893	9.6e-5	5.03e-5	0.0	10.3923	10.3923	10.3923	0	0	1	-60.0001403060998	60.0001403060998								
	6889	6898	0.000136758	7.16e-5	0.0	10.3923	10.3923	10.3923	0	0	1	-60.0001403060998	60.0001403060998								
	6899	6606	0.0004343	0.000403275	0.0	8.66025	8.66025	8.66025	0	0	1	-60.0001403060998	60.0001403060998								
	6898	6895	8.98e-5	4.71e-5	0.0	10.3923	10.3923	10.3923	0	0	1	-60.0001403060998	60.0001403060998								
	6900	6894	6.64e-5	3.48e-5	0.0	10.3923	10.3923	10.3923	0	0	1	-60.0001403060998	60.0001403060998								
	6901	6605	0.000108105	5.66e-5	0.0	10.3923	10.3923	10.3923	0	0	1	-60.0001403060998	60.0001403060998								
	6892	6897	0.000108173	5.67e-5	0.0	10.3923	10.3923	10.3923	0	0	1	-60.0001403060998	60.0001403060998								
	6902	6903	0.00180015	0.00167155	0.0	8.66025	8.66025	8.66025	0	0	1	-60.0001403060998	60.0001403060998								
	6904	6898	0.000113045	5.92e-5	0.0	10.3923	10.3923	10.3923	0	0	1	-60.0001403060998	60.0001403060998								
	6905	6616	0.000126765	6.64e-5	0.0	10.3923	10.3923	10.3923	0	0	1	-60.0001403060998	60.0001403060998								
	6906	6892	7.85e-5	4.11e-5	0.0	10.3923	10.3923	10.3923	0	0	1	-60.0001403060998	60.0001403060998								
	6907	6905	0.000108957	5.71e-5	0.0	10.3923	10.3923	10.3923	0	0	1	-60.0001403060998	60.0001403060998								
	6908	6885	0.00177802	0.00165103	0.0	8.66025	8.66025	8.66025	0	0	1	-60.0001403060998	60.0001403060998								
	6909	6906	8.84e-5	4.63e-5	0.0	10.3923	10.3923	10.3923	0	0	1	-60.0001403060998	60.0001403060998								
	6910	6909	8.65e-5	4.53e-5	0.0	10.3923	10.3923	10.3923	0	0	1	-60.0001403060998	60.0001403060998								
	6911	6602	8.73e-5	4.57e-5	0.0	10.3923	10.3923	10.3923	0	0	1	-60.0001403060998	60.0001403060998								
	6912	6911	0.000155923	8.17e-5	0.0	10.3923	10.3923	10.3923	0	0	1	-60.0001403060998	60.0001403060998								
	6913	6899	0.000906975	0.000842175	0.0	8.66025	8.66025	8.66025	0	0	1	-60.0001403060998	60.0001403060998								
	6914	6915	6.89e-5	3.61e-5	0.0	10.3923	10.3923	10.3923	0	0	1	-60.0001403060998	60.0001403060998								
	6916	6911	0.000115553	6.05e-5	0.0	10.3923	10.3923	10.3923	0	0	1	-60.0001403060998	60.0001403060998								
	6915	6602	4.49e-5	2.35e-5	0.0	10.3923	10.3923	10.3923	0	0	1	-60.0001403060998	60.0001403060998								
	6917	6912	0.00051745	0.0004805	0.0	8.66025	8.66025	8.66025	0	0	1	-60.0001403060998	60.0001403060998								
	6918	6916	0.00015042	7.88e-5	0.0	10.3923	10.3923	10.3923	0	0	1	-60.0001403060998	60.0001403060998								
	6919	6886	0.0013538	0.0012571	0.0	8.66025	8.66025	8.66025	0	0	1	-60.0001403060998	60.0001403060998								
	6920	6607	6.47e-5	3.39e-5	0.0	10.3923	10.3923	10.3923	0	0	1	-60.0001403060998	60.0001403060998								
	6921	6613	0.000129408	0.000120162	0.0	8.66025	8.66025	8.66025	0	0	1	-60.0001403060998	60.0001403060998								
	6903	6921	0.00031395	0.000291525	0.0	8.66025	8.66025	8.66025	0	0	1	-60.0001403060998	60.0001403060998								
	6597	6819	0.000102767	9.54e-5	0.0	8.66025	8.66025	8.66025	0	0	1	-60.0001403060998	60.0001403060998								
	6598	6820	0.00015989	0.00014847	0.0	8.66025	8.66025	8.66025	0	0	1	-60.0001403060998	60.0001403060998								
	6599	6829	0.000168652	0.000156605	0.0	8.66025	8.66025	8.66025	0	0	1	-60.0001403060998	60.0001403060998								
	6600	6808	0.0002918	0.00027095	0.0	8.66025	8.66025	8.66025	0	0	1	-60.0001403060998	60.0001403060998								
	6601	6828	0.00149278	0.00138615	0.0	8.66025	8.66025	8.66025	0	0	1	-60.0001403060998	60.0001403060998								
	6602	6910	0.000187385	0.000174	0.0	8.66025	8.66025	8.66025	0	0	1	-60.0001403060998	60.0001403060998								
	6603	6855	0.000651175	0.00060465	0.0	8.66025	8.66025	8.66025	0	0	1	-60.0001403060998	60.0001403060998								
	6604	6822	0.000239623	0.000222508	0.0	8.66025	8.66025	8.66025	0	0	1	-60.0001403060998	60.0001403060998								
	6605	6907	0.00019011	0.00017653	0.0	8.66025	8.66025	8.66025	0	0	1	-60.0001403060998	60.0001403060998								
	6606	6888	0.000159882	0.000148463	0.0	8.66025	8.66025	8.66025	0	0	1	-60.0001403060998	60.0001403060998								
	6607	6918	0.000404475	0.000375575	0.0	8.66025	8.66025	8.66025	0	0	1	-60.0001403060998	60.0001403060998								
	6608	6884	0.000300075	0.00027865	0.0	8.66025	8.66025	8.66025	0	0	1	-60.0001403060998	60.0001403060998								
	6609	6860	0.0002572	0.000238828	0.0	8.66025	8.66025	8.66025	0	0	1	-60.0001403060998	60.0001403060998								
	6610	6875	0.000219692	0.000204	0.0	8.66025	8.66025	8.66025	0	0	1	-60.0001403060998	60.0001403060998								
	6611	6610	3.07e-5	2.85e-5	0.0	8.66025	8.66025	8.66025	0	0	1	-60.0001403060998	60.0001403060998								
	6612	6836	1.95e-5	1.02e-5	0.0	10.3923	10.3923	10.3923	0	0	1	-60.0001403060998	60.0001403060998								
	6613	6919	0.00034655	0.0003218	0.0	8.66025	8.66025	8.66025	0	0	1	-60.0001403060998	60.0001403060998								
	6614	6827	0.000321075	0.00029815	0.0	8.66025	8.66025	8.66025	0	0	1	-60.0001403060998	60.0001403060998								
	6615	6791	0.000275675	0.000255975	0.0	8.66025	8.66025	8.66025	0	0	1	-60.0001403060998	60.0001403060998								
	6616	6900	3.76e-5	1.97e-5	0.0	10.3923	10.3923	10.3923	0	0	1	-60.0001403060998	60.0001403060998								
	1	6793	3.75e-5	0.00125	0.0	80.0	80.0	80.0	0.93	0.0	1	-60.0001403060998	60.0001403060998								
];

%column_names% length to_b from_b 
mpc.distance = {
	1.251	6770	6769
	1.091	6772	6771
	1.385	6774	6773
	1.422	6776	6775
	1.059	6774	6777
	1.586	6779	6778
	1.047	6781	6780
	1.6	6783	6782
	0.4	6615	6784
	1.021	6785	6772
	1.529	6786	6774
	1.714	6788	6787
	1.454	6789	6770
	1.45	6780	6789
	1.296	6790	6779
	0.885	6776	6791
	1.689	6773	6783
	0.478	6792	6785
	0.915	6781	6776
	2.683	6793	6786
	0.28	6795	6794
	0.763	6797	6796
	0.721	6798	6797
	0.295	6785	6799
	0.066	6600	6800
	0.513	6802	6801
	0.314	6794	6792
	0.192	6795	6803
	0.306	6804	6802
	0.231	6802	6805
	0.266	6804	6795
	0.376	6601	6788
	0.276	6604	6806
	0.219	6807	6804
	4.14	6793	6781
	0.245	6807	6808
	0.824	6809	6790
	8.23	6793	6807
	0.737	6807	6810
	0.284	6812	6811
	0.233	6807	6813
	0.224	6811	6814
	0.016	6604	6815
	0.233	6614	6812
	0.239	6817	6816
	0.26	6807	6818
	0.085	6614	6819
	0.675	6821	6820
	0.261	6823	6822
	0.195	6597	6798
	0.24	6818	6824
	0.208	6813	6823
	0.24	6824	6825
	0.197	6817	6826
	0.215	6827	6817
	0.776	6809	6828
	0.191	6816	6829
	0.208	6831	6830
	0.218	6832	6827
	0.052	6599	6821
	0.193	6823	6833
	0.18	6830	6834
	0.28	6835	6831
	0.226	6831	6832
	0.291	6833	6836
	0.215	6836	6837
	0.257	6837	6838
	0.189	6830	6839
	0.203	6839	6840
	0.142	6841	6835
	0.717	6842	6809
	0.346	6843	6841
	0.299	6837	6844
	0.258	6838	6845
	2.035	6807	6846
	0.227	6840	6847
	1.127	6848	6843
	1.86	6793	6848
	1.866	6807	6849
	1.986	6789	6850
	1.052	6793	6851
	1.629	6851	6852
	2.215	6603	6842
	0.87	6854	6853
	1.885	6852	6855
	0.963	6856	6854
	1.419	6842	6856
	2.759	6846	6857
	1.107	6856	6858
	1.897	6603	6859
	1.109	6854	6860
	1.515	6851	6861
	0.721	6863	6862
	0.26	6860	6864
	0.241	6866	6865
	0.258	6867	6866
	0.174	6864	6868
	0.191	6868	6869
	0.497	6871	6870
	0.226	6865	6871
	0.379	6863	6872
	0.093	6609	6873
	0.264	6875	6874
	0.532	6874	6863
	0.281	6877	6876
	0.147	6879	6878
	0.183	6881	6880
	0.02	6611	6867
	5.277	6793	6875
	0.218	6881	6882
	0.203	6867	6877
	0.352	6608	6883
	0.213	6884	6879
	0.248	6869	6881
	1.274	6861	6885
	1.167	6861	6886
	0.152	6606	6887
	0.23	6610	6888
	0.267	6889	6884
	0.392	6883	6890
	0.152	6892	6891
	0.205	6882	6893
	0.252	6895	6894
	0.129	6890	6896
	0.279	6876	6895
	0.183	6893	6897
	0.26	6898	6889
	0.414	6606	6899
	0.171	6895	6898
	0.127	6894	6900
	0.206	6605	6901
	0.206	6897	6892
	1.714	6903	6902
	0.215	6898	6904
	0.241	6616	6905
	0.15	6892	6906
	0.208	6905	6907
	1.693	6885	6908
	0.168	6906	6909
	0.165	6909	6910
	0.166	6602	6911
	0.297	6911	6912
	0.864	6899	6913
	0.131	6915	6914
	0.22	6911	6916
	0.085	6602	6915
	0.493	6912	6917
	0.287	6916	6918
	1.289	6886	6919
	0.123	6607	6920
	0.123	6613	6921
	0.299	6921	6903
	0.098	6819	6597
	0.152	6820	6598
	0.161	6829	6599
	0.278	6808	6600
	1.422	6828	6601
	0.178	6910	6602
	0.62	6855	6603
	0.228	6822	6604
	0.181	6907	6605
	0.152	6888	6606
	0.385	6918	6607
	0.286	6884	6608
	0.245	6860	6609
	0.209	6875	6610
	0.029	6610	6611
	0.037	6836	6612
	0.33	6919	6613
	0.306	6827	6614
	0.263	6791	6615
	0.072	6900	6616
	1.35	6796	6786
	2.407	6779	6782
	2.116	6870	6850
	2.666	6771	6769
	0.35	6838	6825
	0.648	6840	6821
	3.624	6917	6859
	4.563	6605	6903
	0.27	6904	6889
	0.0	6793	1
};

